  18

 C          2.4612677932        0.4533361313        0.1826439030
 O          1.2861917189        0.2644311912       -0.5661235905
 C          0.4665366117       -0.7850246318       -0.0348772525
 C         -0.8522988996       -0.9765564822       -0.8213551644
 C         -1.5512370078       -0.1092531519        0.2504542747
 N         -1.6946904246        1.2917794996       -0.1252335220
 C         -0.3620636217       -0.3678605744        1.2039135399
 H          2.2158910406        0.7041219464        1.2146617315
 H          3.0310280128        1.2718969599       -0.2582250408
 H          3.0644641129       -0.4548913387        0.1586405560
 H          1.0528699171       -1.7120004249        0.0912021753
 H         -1.2063019652       -2.0151077226       -0.8666566187
 H         -0.8256764096       -0.5122070643       -1.8133364550
 H         -2.5060776415       -0.5290754137        0.6160220899
 H         -2.3084923271        1.3742334194       -0.9252363706
 H         -0.7866074786        1.6297404021       -0.4129546371
 H         -0.0005629340        0.5449939936        1.6892099745
 H         -0.5295403598       -1.1751692511        1.9292402765
