18
Coordinates from ORCA-job input
  C   2.78844112609985      0.42192585833961     -0.03961036493840
  O   1.70961807194824     -0.39193492723312     -0.42267742345331
  C   0.58859584208051     -0.28751920649152      0.41189430432993
  C   -0.60180716562849     -1.16406834435782     -0.01079413233577
  C   -1.55006974463185      0.02223902916275      0.35977875461293
  N   -2.70111422425464      0.38265008646886     -0.43664333825886
  C   -0.32366602085950      0.96596417333456      0.29221955741892
  H   2.52951722709479      1.49984117498586     -0.05574399449095
  H   3.60853021818485      0.25082677461513     -0.75304997154752
  H   3.15132328711442      0.17569494634936      0.97993559783676
  H   0.87916362457549     -0.46786141522115      1.46805488186645
  H   -0.73976483579534     -2.13769819947611      0.48572992945276
  H   -0.57113525506663     -1.31267844011869     -1.10283864518372
  H   -1.88526343042458     -0.08253148382158      1.40613088735844
  H   -2.46306770185515      0.39336311599614     -1.42955947685059
  H   -3.45304685206357     -0.29811318381749     -0.32342150018413
  H   -0.22556277104042      1.39932505975895     -0.71737658416527
  H   -0.24465229197798      1.76963711752625      1.04063124693233
